                   SWAT+               
             Revision 61.0.2.61-342-g5ccf6f0  
      Soil & Water Assessment Tool    
IntelLLVM (2026.0.0), 2026-06-04 09:17:46, Windows
    Program reading . . . executing


  Date of Sim   7/10/2026 Time  13:48:21
 reading from pet file                   Time  13:48:21
 reading from precipitation file         Time  13:48:21
